<?xml version="1.0" encoding="utf-8"?>
<LinearLayout
    xmlns:android="http://schemas.android.com/apk/res/android"
    android:layout_width="match_parent"
    android:layout_height="80dp"
    android:background="@drawable/border_gray100"
    android:descendantFocusability="blocksDescendants"
    android:orientation="horizontal"
    android:paddingStart="10dp"
    android:paddingTop="0dp"
    android:paddingEnd="10dp"
    android:paddingBottom="0dp">

    <net.ib.mn.view.ExodusImageView
        android:id="@+id/iv_photo"
        android:layout_width="40dp"
        android:layout_height="40dp"
        android:layout_gravity="center_vertical"
        android:layout_marginEnd="10dp"
        android:scaleType="centerCrop"/>

    <RelativeLayout
        android:layout_width="match_parent"
        android:layout_height="match_parent">

        <Button
            android:id="@+id/btn_add_friend"
            android:layout_width="20dp"
            android:layout_height="20dp"
            android:layout_alignParentEnd="true"
            android:layout_centerVertical="true"
            android:background="@drawable/btn_add_friend_recommended"/>

        <LinearLayout
            android:layout_width="match_parent"
            android:layout_height="wrap_content"
            android:layout_centerVertical="true"
            android:layout_marginEnd="10dp"
            android:orientation="vertical">

            <LinearLayout
                android:layout_width="match_parent"
                android:layout_height="wrap_content"
                android:layout_marginBottom="3dp"
                android:gravity="center_vertical"
                android:orientation="horizontal">

                <ImageView
                    android:id="@+id/iv_emoticon"
                    android:layout_width="20dp"
                    android:layout_height="20dp"
                    android:layout_gravity="center_vertical"
                    android:layout_marginEnd="1dp"
                    android:scaleType="fitCenter"
                    android:visibility="gone"/>

                <ImageView
                    android:id="@+id/iv_level"
                    android:layout_width="wrap_content"
                    android:layout_height="wrap_content"
                    android:layout_marginEnd="2dp"
                    android:background="@android:color/transparent"
                    android:padding="0dp"
                    android:scaleType="fitXY"
                    android:src="@drawable/icon_level_0"/>

                <TextView
                    android:id="@+id/tv_name"
                    android:layout_width="match_parent"
                    android:layout_height="wrap_content"
                    android:ellipsize="end"
                    android:singleLine="true"
                    android:text=""
                    android:textAlignment="viewStart"
                    android:textColor="@color/main"
                    android:textSize="15sp"/>

            </LinearLayout>

            <RelativeLayout
                android:layout_width="wrap_content"
                android:layout_height="wrap_content">

                <TextView
                    android:id="@+id/tv_favorite_idol"
                    android:layout_width="wrap_content"
                    android:layout_height="wrap_content"
                    android:layout_marginTop="3dp"
                    android:hint="@string/none"
                    android:textAlignment="viewStart"
                    android:textColor="@color/gray580"
                    android:textSize="13sp"/>

            </RelativeLayout>

            <TextView
                android:id="@+id/tv_vote_count"
                android:layout_width="match_parent"
                android:layout_height="wrap_content"
                android:text="@string/empty_vote"
                android:textAlignment="viewStart"
                android:textColor="@color/gray580"
                android:textSize="13sp"/>

        </LinearLayout>

    </RelativeLayout>

</LinearLayout>